data_image0
_chemical_formula_structural       Ca4Ti4O12Ca4Ti4O12Ca4Ti4O12Ca4Ti4O12Ca4Ti4O12Ca4Ti4O12Ca4Ti4O12Ca4Ti4O12Ca4Ti4O12Ca4Ti4O12Ca4Ti4O12Ca4Ti4O12Ca4Ti4O12Ca4Ti4O12Ca4Ti4O12Ca4Ti4O12Ca4Ti4O12Ca4Ti4O12
_chemical_formula_sum              "Ca72 Ti72 O216"
_cell_length_a       34.4928
_cell_length_b       39.9893
_cell_length_c       24.4135
_cell_angle_alpha    90
_cell_angle_beta     90
_cell_angle_gamma    141.156

_space_group_name_H-M_alt    "P 1"
_space_group_IT_number       1

loop_
  _space_group_symop_operation_xyz
  'x, y, z'

loop_
  _atom_site_type_symbol
  _atom_site_label
  _atom_site_symmetry_multiplicity
  _atom_site_fract_x
  _atom_site_fract_y
  _atom_site_fract_z
  _atom_site_occupancy
  Ca  Ca1       1.0  0.18302  0.09906  0.44077  1.0000
  Ca  Ca2       1.0  0.19143  0.26189  0.43191  1.0000
  Ca  Ca3       1.0  0.43078  0.09756  0.43730  1.0000
  Ca  Ca4       1.0  0.44366  0.26339  0.43537  1.0000
  Ti  Ti1       1.0  0.43722  0.18048  0.43634  1.0000
  Ti  Ti2       1.0  0.43722  0.01381  0.43634  1.0000
  Ti  Ti3       1.0  0.18722  0.18048  0.43634  1.0000
  Ti  Ti4       1.0  0.18722  0.01381  0.43634  1.0000
  O   O1        1.0  0.01181  0.08918  0.41798  1.0000
  O   O2        1.0  0.36263  0.27177  0.45469  1.0000
  O   O3        1.0  0.11732  0.10407  0.45232  1.0000
  O   O4        1.0  0.25712  0.25688  0.42036  1.0000
  O   O5        1.0  0.38508  0.01560  0.40961  1.0000
  O   O6        1.0  0.00953  0.20102  0.45284  1.0000
  O   O7        1.0  0.48936  0.01202  0.46306  1.0000
  O   O8        1.0  0.36491  0.15993  0.41984  1.0000
  O   O9        1.0  0.31236  0.02273  0.42605  1.0000
  O   O10       1.0  0.08225  0.19389  0.43640  1.0000
  O   O11       1.0  0.06208  0.00488  0.44662  1.0000
  O   O12       1.0  0.29219  0.16706  0.43628  1.0000
  Ca  Ca5       1.0  0.05746  0.12668  0.50443  1.0000
  Ca  Ca6       1.0  0.06587  0.28950  0.49557  1.0000
  Ca  Ca7       1.0  0.30522  0.12518  0.50097  1.0000
  Ca  Ca8       1.0  0.31810  0.29101  0.49903  1.0000
  Ti  Ti5       1.0  0.31166  0.20809  0.50000  1.0000
  Ti  Ti6       1.0  0.31166  0.04143  0.50000  1.0000
  Ti  Ti7       1.0  0.06166  0.20809  0.50000  1.0000
  Ti  Ti8       1.0  0.06166  0.04143  0.50000  1.0000
  O   O13       1.0  0.38625  0.11680  0.48164  1.0000
  O   O14       1.0  0.23707  0.29939  0.51836  1.0000
  O   O15       1.0  0.49176  0.13169  0.51598  1.0000
  O   O16       1.0  0.13157  0.28449  0.48402  1.0000
  O   O17       1.0  0.25952  0.04322  0.47327  1.0000
  O   O18       1.0  0.38397  0.22864  0.51650  1.0000
  O   O19       1.0  0.36380  0.03963  0.52673  1.0000
  O   O20       1.0  0.23935  0.18755  0.48350  1.0000
  O   O21       1.0  0.18680  0.05035  0.48971  1.0000
  O   O22       1.0  0.45669  0.22150  0.50006  1.0000
  O   O23       1.0  0.43652  0.03250  0.51029  1.0000
  O   O24       1.0  0.16663  0.19468  0.49994  1.0000
  Ca  Ca9       1.0  0.43190  0.15430  0.56809  1.0000
  Ca  Ca10      1.0  0.44031  0.31712  0.55923  1.0000
  Ca  Ca11      1.0  0.17966  0.15279  0.56463  1.0000
  Ca  Ca12      1.0  0.19254  0.31862  0.56270  1.0000
  Ti  Ti9       1.0  0.18610  0.23571  0.56366  1.0000
  Ti  Ti10      1.0  0.18610  0.06904  0.56366  1.0000
  Ti  Ti11      1.0  0.43610  0.23571  0.56366  1.0000
  Ti  Ti12      1.0  0.43610  0.06904  0.56366  1.0000
  O   O25       1.0  0.26070  0.14441  0.54531  1.0000
  O   O26       1.0  0.11151  0.32700  0.58202  1.0000
  O   O27       1.0  0.36620  0.15931  0.57964  1.0000
  O   O28       1.0  0.00601  0.31211  0.54768  1.0000
  O   O29       1.0  0.13396  0.07083  0.53694  1.0000
  O   O30       1.0  0.25841  0.25625  0.58016  1.0000
  O   O31       1.0  0.23824  0.06725  0.59039  1.0000
  O   O32       1.0  0.11379  0.21516  0.54716  1.0000
  O   O33       1.0  0.06124  0.07797  0.55338  1.0000
  O   O34       1.0  0.33113  0.24912  0.56372  1.0000
  O   O35       1.0  0.31096  0.06012  0.57395  1.0000
  O   O36       1.0  0.04108  0.22230  0.56360  1.0000
  Ca  Ca13      1.0  0.18302  0.43240  0.44077  1.0000
  Ca  Ca14      1.0  0.19143  0.59522  0.43191  1.0000
  Ca  Ca15      1.0  0.43078  0.43089  0.43730  1.0000
  Ca  Ca16      1.0  0.44366  0.59672  0.43537  1.0000
  Ti  Ti13      1.0  0.43722  0.51381  0.43634  1.0000
  Ti  Ti14      1.0  0.43722  0.34714  0.43634  1.0000
  Ti  Ti15      1.0  0.18722  0.51381  0.43634  1.0000
  Ti  Ti16      1.0  0.18722  0.34714  0.43634  1.0000
  O   O37       1.0  0.01181  0.42251  0.41798  1.0000
  O   O38       1.0  0.36263  0.60510  0.45469  1.0000
  O   O39       1.0  0.11732  0.43741  0.45232  1.0000
  O   O40       1.0  0.25712  0.59021  0.42036  1.0000
  O   O41       1.0  0.38508  0.34893  0.40961  1.0000
  O   O42       1.0  0.00953  0.53435  0.45284  1.0000
  O   O43       1.0  0.48936  0.34535  0.46306  1.0000
  O   O44       1.0  0.36491  0.49326  0.41984  1.0000
  O   O45       1.0  0.31236  0.35607  0.42605  1.0000
  O   O46       1.0  0.08225  0.52722  0.43640  1.0000
  O   O47       1.0  0.06208  0.33822  0.44662  1.0000
  O   O48       1.0  0.29219  0.50040  0.43628  1.0000
  Ca  Ca17      1.0  0.05746  0.46001  0.50443  1.0000
  Ca  Ca18      1.0  0.06587  0.62284  0.49557  1.0000
  Ca  Ca19      1.0  0.30522  0.45851  0.50097  1.0000
  Ca  Ca20      1.0  0.31810  0.62434  0.49903  1.0000
  Ti  Ti17      1.0  0.31166  0.54143  0.50000  1.0000
  Ti  Ti18      1.0  0.31166  0.37476  0.50000  1.0000
  Ti  Ti19      1.0  0.06166  0.54143  0.50000  1.0000
  Ti  Ti20      1.0  0.06166  0.37476  0.50000  1.0000
  O   O49       1.0  0.38625  0.45013  0.48164  1.0000
  O   O50       1.0  0.23707  0.63272  0.51836  1.0000
  O   O51       1.0  0.49176  0.46502  0.51598  1.0000
  O   O52       1.0  0.13157  0.61783  0.48402  1.0000
  O   O53       1.0  0.25952  0.37655  0.47327  1.0000
  O   O54       1.0  0.38397  0.56197  0.51650  1.0000
  O   O55       1.0  0.36380  0.37297  0.52673  1.0000
  O   O56       1.0  0.23935  0.52088  0.48350  1.0000
  O   O57       1.0  0.18680  0.38368  0.48971  1.0000
  O   O58       1.0  0.45669  0.55484  0.50006  1.0000
  O   O59       1.0  0.43652  0.36583  0.51029  1.0000
  O   O60       1.0  0.16663  0.52801  0.49994  1.0000
  Ca  Ca21      1.0  0.43190  0.48763  0.56809  1.0000
  Ca  Ca22      1.0  0.44031  0.65045  0.55923  1.0000
  Ca  Ca23      1.0  0.17966  0.48613  0.56463  1.0000
  Ca  Ca24      1.0  0.19254  0.65196  0.56270  1.0000
  Ti  Ti21      1.0  0.18610  0.56904  0.56366  1.0000
  Ti  Ti22      1.0  0.18610  0.40238  0.56366  1.0000
  Ti  Ti23      1.0  0.43610  0.56904  0.56366  1.0000
  Ti  Ti24      1.0  0.43610  0.40238  0.56366  1.0000
  O   O61       1.0  0.26070  0.47775  0.54531  1.0000
  O   O62       1.0  0.11151  0.66034  0.58202  1.0000
  O   O63       1.0  0.36620  0.49264  0.57964  1.0000
  O   O64       1.0  0.00601  0.64544  0.54768  1.0000
  O   O65       1.0  0.13396  0.40417  0.53694  1.0000
  O   O66       1.0  0.25841  0.58959  0.58016  1.0000
  O   O67       1.0  0.23824  0.40058  0.59039  1.0000
  O   O68       1.0  0.11379  0.54850  0.54716  1.0000
  O   O69       1.0  0.06124  0.41130  0.55338  1.0000
  O   O70       1.0  0.33113  0.58245  0.56372  1.0000
  O   O71       1.0  0.31096  0.39345  0.57395  1.0000
  O   O72       1.0  0.04108  0.55563  0.56360  1.0000
  Ca  Ca25      1.0  0.18302  0.76573  0.44077  1.0000
  Ca  Ca26      1.0  0.19143  0.92855  0.43191  1.0000
  Ca  Ca27      1.0  0.43078  0.76423  0.43730  1.0000
  Ca  Ca28      1.0  0.44366  0.93006  0.43537  1.0000
  Ti  Ti25      1.0  0.43722  0.84714  0.43634  1.0000
  Ti  Ti26      1.0  0.43722  0.68048  0.43634  1.0000
  Ti  Ti27      1.0  0.18722  0.84714  0.43634  1.0000
  Ti  Ti28      1.0  0.18722  0.68048  0.43634  1.0000
  O   O73       1.0  0.01181  0.75585  0.41798  1.0000
  O   O74       1.0  0.36263  0.93844  0.45469  1.0000
  O   O75       1.0  0.11732  0.77074  0.45232  1.0000
  O   O76       1.0  0.25712  0.92354  0.42036  1.0000
  O   O77       1.0  0.38508  0.68227  0.40961  1.0000
  O   O78       1.0  0.00953  0.86769  0.45284  1.0000
  O   O79       1.0  0.48936  0.67868  0.46306  1.0000
  O   O80       1.0  0.36491  0.82660  0.41984  1.0000
  O   O81       1.0  0.31236  0.68940  0.42605  1.0000
  O   O82       1.0  0.08225  0.86055  0.43640  1.0000
  O   O83       1.0  0.06208  0.67155  0.44662  1.0000
  O   O84       1.0  0.29219  0.83373  0.43628  1.0000
  Ca  Ca29      1.0  0.05746  0.79335  0.50443  1.0000
  Ca  Ca30      1.0  0.06587  0.95617  0.49557  1.0000
  Ca  Ca31      1.0  0.30522  0.79184  0.50097  1.0000
  Ca  Ca32      1.0  0.31810  0.95767  0.49903  1.0000
  Ti  Ti29      1.0  0.31166  0.87476  0.50000  1.0000
  Ti  Ti30      1.0  0.31166  0.70809  0.50000  1.0000
  Ti  Ti31      1.0  0.06166  0.87476  0.50000  1.0000
  Ti  Ti32      1.0  0.06166  0.70809  0.50000  1.0000
  O   O85       1.0  0.38625  0.78346  0.48164  1.0000
  O   O86       1.0  0.23707  0.96605  0.51836  1.0000
  O   O87       1.0  0.49176  0.79836  0.51598  1.0000
  O   O88       1.0  0.13157  0.95116  0.48402  1.0000
  O   O89       1.0  0.25952  0.70988  0.47327  1.0000
  O   O90       1.0  0.38397  0.89530  0.51650  1.0000
  O   O91       1.0  0.36380  0.70630  0.52673  1.0000
  O   O92       1.0  0.23935  0.85421  0.48350  1.0000
  O   O93       1.0  0.18680  0.71702  0.48971  1.0000
  O   O94       1.0  0.45669  0.88817  0.50006  1.0000
  O   O95       1.0  0.43652  0.69917  0.51029  1.0000
  O   O96       1.0  0.16663  0.86135  0.49994  1.0000
  Ca  Ca33      1.0  0.43190  0.82096  0.56809  1.0000
  Ca  Ca34      1.0  0.44031  0.98379  0.55923  1.0000
  Ca  Ca35      1.0  0.17966  0.81946  0.56463  1.0000
  Ca  Ca36      1.0  0.19254  0.98529  0.56270  1.0000
  Ti  Ti33      1.0  0.18610  0.90238  0.56366  1.0000
  Ti  Ti34      1.0  0.18610  0.73571  0.56366  1.0000
  Ti  Ti35      1.0  0.43610  0.90238  0.56366  1.0000
  Ti  Ti36      1.0  0.43610  0.73571  0.56366  1.0000
  O   O97       1.0  0.26070  0.81108  0.54531  1.0000
  O   O98       1.0  0.11151  0.99367  0.58202  1.0000
  O   O99       1.0  0.36620  0.82597  0.57964  1.0000
  O   O100      1.0  0.00601  0.97878  0.54768  1.0000
  O   O101      1.0  0.13396  0.73750  0.53694  1.0000
  O   O102      1.0  0.25841  0.92292  0.58016  1.0000
  O   O103      1.0  0.23824  0.73392  0.59039  1.0000
  O   O104      1.0  0.11379  0.88183  0.54716  1.0000
  O   O105      1.0  0.06124  0.74463  0.55338  1.0000
  O   O106      1.0  0.33113  0.91579  0.56372  1.0000
  O   O107      1.0  0.31096  0.72678  0.57395  1.0000
  O   O108      1.0  0.04108  0.88896  0.56360  1.0000
  Ca  Ca37      1.0  0.68302  0.09906  0.44077  1.0000
  Ca  Ca38      1.0  0.69143  0.26189  0.43191  1.0000
  Ca  Ca39      1.0  0.93078  0.09756  0.43730  1.0000
  Ca  Ca40      1.0  0.94366  0.26339  0.43537  1.0000
  Ti  Ti37      1.0  0.93722  0.18048  0.43634  1.0000
  Ti  Ti38      1.0  0.93722  0.01381  0.43634  1.0000
  Ti  Ti39      1.0  0.68722  0.18048  0.43634  1.0000
  Ti  Ti40      1.0  0.68722  0.01381  0.43634  1.0000
  O   O109      1.0  0.51181  0.08918  0.41798  1.0000
  O   O110      1.0  0.86263  0.27177  0.45469  1.0000
  O   O111      1.0  0.61732  0.10407  0.45232  1.0000
  O   O112      1.0  0.75712  0.25688  0.42036  1.0000
  O   O113      1.0  0.88508  0.01560  0.40961  1.0000
  O   O114      1.0  0.50953  0.20102  0.45284  1.0000
  O   O115      1.0  0.98936  0.01202  0.46306  1.0000
  O   O116      1.0  0.86491  0.15993  0.41984  1.0000
  O   O117      1.0  0.81236  0.02273  0.42605  1.0000
  O   O118      1.0  0.58225  0.19389  0.43640  1.0000
  O   O119      1.0  0.56208  0.00488  0.44662  1.0000
  O   O120      1.0  0.79219  0.16706  0.43628  1.0000
  Ca  Ca41      1.0  0.55746  0.12668  0.50443  1.0000
  Ca  Ca42      1.0  0.56587  0.28950  0.49557  1.0000
  Ca  Ca43      1.0  0.80522  0.12518  0.50097  1.0000
  Ca  Ca44      1.0  0.81810  0.29101  0.49903  1.0000
  Ti  Ti41      1.0  0.81166  0.20809  0.50000  1.0000
  Ti  Ti42      1.0  0.81166  0.04143  0.50000  1.0000
  Ti  Ti43      1.0  0.56166  0.20809  0.50000  1.0000
  Ti  Ti44      1.0  0.56166  0.04143  0.50000  1.0000
  O   O121      1.0  0.88625  0.11680  0.48164  1.0000
  O   O122      1.0  0.73707  0.29939  0.51836  1.0000
  O   O123      1.0  0.99176  0.13169  0.51598  1.0000
  O   O124      1.0  0.63157  0.28449  0.48402  1.0000
  O   O125      1.0  0.75952  0.04322  0.47327  1.0000
  O   O126      1.0  0.88397  0.22864  0.51650  1.0000
  O   O127      1.0  0.86380  0.03963  0.52673  1.0000
  O   O128      1.0  0.73935  0.18755  0.48350  1.0000
  O   O129      1.0  0.68680  0.05035  0.48971  1.0000
  O   O130      1.0  0.95669  0.22150  0.50006  1.0000
  O   O131      1.0  0.93652  0.03250  0.51029  1.0000
  O   O132      1.0  0.66663  0.19468  0.49994  1.0000
  Ca  Ca45      1.0  0.93190  0.15430  0.56809  1.0000
  Ca  Ca46      1.0  0.94031  0.31712  0.55923  1.0000
  Ca  Ca47      1.0  0.67966  0.15279  0.56463  1.0000
  Ca  Ca48      1.0  0.69254  0.31862  0.56270  1.0000
  Ti  Ti45      1.0  0.68610  0.23571  0.56366  1.0000
  Ti  Ti46      1.0  0.68610  0.06904  0.56366  1.0000
  Ti  Ti47      1.0  0.93610  0.23571  0.56366  1.0000
  Ti  Ti48      1.0  0.93610  0.06904  0.56366  1.0000
  O   O133      1.0  0.76070  0.14441  0.54531  1.0000
  O   O134      1.0  0.61151  0.32700  0.58202  1.0000
  O   O135      1.0  0.86620  0.15931  0.57964  1.0000
  O   O136      1.0  0.50601  0.31211  0.54768  1.0000
  O   O137      1.0  0.63396  0.07083  0.53694  1.0000
  O   O138      1.0  0.75841  0.25625  0.58016  1.0000
  O   O139      1.0  0.73824  0.06725  0.59039  1.0000
  O   O140      1.0  0.61379  0.21516  0.54716  1.0000
  O   O141      1.0  0.56124  0.07797  0.55338  1.0000
  O   O142      1.0  0.83113  0.24912  0.56372  1.0000
  O   O143      1.0  0.81096  0.06012  0.57395  1.0000
  O   O144      1.0  0.54108  0.22230  0.56360  1.0000
  Ca  Ca49      1.0  0.68302  0.43240  0.44077  1.0000
  Ca  Ca50      1.0  0.69143  0.59522  0.43191  1.0000
  Ca  Ca51      1.0  0.93078  0.43089  0.43730  1.0000
  Ca  Ca52      1.0  0.94366  0.59672  0.43537  1.0000
  Ti  Ti49      1.0  0.93722  0.51381  0.43634  1.0000
  Ti  Ti50      1.0  0.93722  0.34714  0.43634  1.0000
  Ti  Ti51      1.0  0.68722  0.51381  0.43634  1.0000
  Ti  Ti52      1.0  0.68722  0.34714  0.43634  1.0000
  O   O145      1.0  0.51181  0.42251  0.41798  1.0000
  O   O146      1.0  0.86263  0.60510  0.45469  1.0000
  O   O147      1.0  0.61732  0.43741  0.45232  1.0000
  O   O148      1.0  0.75712  0.59021  0.42036  1.0000
  O   O149      1.0  0.88508  0.34893  0.40961  1.0000
  O   O150      1.0  0.50953  0.53435  0.45284  1.0000
  O   O151      1.0  0.98936  0.34535  0.46306  1.0000
  O   O152      1.0  0.86491  0.49326  0.41984  1.0000
  O   O153      1.0  0.81236  0.35607  0.42605  1.0000
  O   O154      1.0  0.58225  0.52722  0.43640  1.0000
  O   O155      1.0  0.56208  0.33822  0.44662  1.0000
  O   O156      1.0  0.79219  0.50040  0.43628  1.0000
  Ca  Ca53      1.0  0.55746  0.46001  0.50443  1.0000
  Ca  Ca54      1.0  0.56587  0.62284  0.49557  1.0000
  Ca  Ca55      1.0  0.80522  0.45851  0.50097  1.0000
  Ca  Ca56      1.0  0.81810  0.62434  0.49903  1.0000
  Ti  Ti53      1.0  0.81166  0.54143  0.50000  1.0000
  Ti  Ti54      1.0  0.81166  0.37476  0.50000  1.0000
  Ti  Ti55      1.0  0.56166  0.54143  0.50000  1.0000
  Ti  Ti56      1.0  0.56166  0.37476  0.50000  1.0000
  O   O157      1.0  0.88625  0.45013  0.48164  1.0000
  O   O158      1.0  0.73707  0.63272  0.51836  1.0000
  O   O159      1.0  0.99176  0.46502  0.51598  1.0000
  O   O160      1.0  0.63157  0.61783  0.48402  1.0000
  O   O161      1.0  0.75952  0.37655  0.47327  1.0000
  O   O162      1.0  0.88397  0.56197  0.51650  1.0000
  O   O163      1.0  0.86380  0.37297  0.52673  1.0000
  O   O164      1.0  0.73935  0.52088  0.48350  1.0000
  O   O165      1.0  0.68680  0.38368  0.48971  1.0000
  O   O166      1.0  0.95669  0.55484  0.50006  1.0000
  O   O167      1.0  0.93652  0.36583  0.51029  1.0000
  O   O168      1.0  0.66663  0.52801  0.49994  1.0000
  Ca  Ca57      1.0  0.93190  0.48763  0.56809  1.0000
  Ca  Ca58      1.0  0.94031  0.65045  0.55923  1.0000
  Ca  Ca59      1.0  0.67966  0.48613  0.56463  1.0000
  Ca  Ca60      1.0  0.69254  0.65196  0.56270  1.0000
  Ti  Ti57      1.0  0.68610  0.56904  0.56366  1.0000
  Ti  Ti58      1.0  0.68610  0.40238  0.56366  1.0000
  Ti  Ti59      1.0  0.93610  0.56904  0.56366  1.0000
  Ti  Ti60      1.0  0.93610  0.40238  0.56366  1.0000
  O   O169      1.0  0.76070  0.47775  0.54531  1.0000
  O   O170      1.0  0.61151  0.66034  0.58202  1.0000
  O   O171      1.0  0.86620  0.49264  0.57964  1.0000
  O   O172      1.0  0.50601  0.64544  0.54768  1.0000
  O   O173      1.0  0.63396  0.40417  0.53694  1.0000
  O   O174      1.0  0.75841  0.58959  0.58016  1.0000
  O   O175      1.0  0.73824  0.40058  0.59039  1.0000
  O   O176      1.0  0.61379  0.54850  0.54716  1.0000
  O   O177      1.0  0.56124  0.41130  0.55338  1.0000
  O   O178      1.0  0.83113  0.58245  0.56372  1.0000
  O   O179      1.0  0.81096  0.39345  0.57395  1.0000
  O   O180      1.0  0.54108  0.55563  0.56360  1.0000
  Ca  Ca61      1.0  0.68302  0.76573  0.44077  1.0000
  Ca  Ca62      1.0  0.69143  0.92855  0.43191  1.0000
  Ca  Ca63      1.0  0.93078  0.76423  0.43730  1.0000
  Ca  Ca64      1.0  0.94366  0.93006  0.43537  1.0000
  Ti  Ti61      1.0  0.93722  0.84714  0.43634  1.0000
  Ti  Ti62      1.0  0.93722  0.68048  0.43634  1.0000
  Ti  Ti63      1.0  0.68722  0.84714  0.43634  1.0000
  Ti  Ti64      1.0  0.68722  0.68048  0.43634  1.0000
  O   O181      1.0  0.51181  0.75585  0.41798  1.0000
  O   O182      1.0  0.86263  0.93844  0.45469  1.0000
  O   O183      1.0  0.61732  0.77074  0.45232  1.0000
  O   O184      1.0  0.75712  0.92354  0.42036  1.0000
  O   O185      1.0  0.88508  0.68227  0.40961  1.0000
  O   O186      1.0  0.50953  0.86769  0.45284  1.0000
  O   O187      1.0  0.98936  0.67868  0.46306  1.0000
  O   O188      1.0  0.86491  0.82660  0.41984  1.0000
  O   O189      1.0  0.81236  0.68940  0.42605  1.0000
  O   O190      1.0  0.58225  0.86055  0.43640  1.0000
  O   O191      1.0  0.56208  0.67155  0.44662  1.0000
  O   O192      1.0  0.79219  0.83373  0.43628  1.0000
  Ca  Ca65      1.0  0.55746  0.79335  0.50443  1.0000
  Ca  Ca66      1.0  0.56587  0.95617  0.49557  1.0000
  Ca  Ca67      1.0  0.80522  0.79184  0.50097  1.0000
  Ca  Ca68      1.0  0.81810  0.95767  0.49903  1.0000
  Ti  Ti65      1.0  0.81166  0.87476  0.50000  1.0000
  Ti  Ti66      1.0  0.81166  0.70809  0.50000  1.0000
  Ti  Ti67      1.0  0.56166  0.87476  0.50000  1.0000
  Ti  Ti68      1.0  0.56166  0.70809  0.50000  1.0000
  O   O193      1.0  0.88625  0.78346  0.48164  1.0000
  O   O194      1.0  0.73707  0.96605  0.51836  1.0000
  O   O195      1.0  0.99176  0.79836  0.51598  1.0000
  O   O196      1.0  0.63157  0.95116  0.48402  1.0000
  O   O197      1.0  0.75952  0.70988  0.47327  1.0000
  O   O198      1.0  0.88397  0.89530  0.51650  1.0000
  O   O199      1.0  0.86380  0.70630  0.52673  1.0000
  O   O200      1.0  0.73935  0.85421  0.48350  1.0000
  O   O201      1.0  0.68680  0.71702  0.48971  1.0000
  O   O202      1.0  0.95669  0.88817  0.50006  1.0000
  O   O203      1.0  0.93652  0.69917  0.51029  1.0000
  O   O204      1.0  0.66663  0.86135  0.49994  1.0000
  Ca  Ca69      1.0  0.93190  0.82096  0.56809  1.0000
  Ca  Ca70      1.0  0.94031  0.98379  0.55923  1.0000
  Ca  Ca71      1.0  0.67966  0.81946  0.56463  1.0000
  Ca  Ca72      1.0  0.69254  0.98529  0.56270  1.0000
  Ti  Ti69      1.0  0.68610  0.90238  0.56366  1.0000
  Ti  Ti70      1.0  0.68610  0.73571  0.56366  1.0000
  Ti  Ti71      1.0  0.93610  0.90238  0.56366  1.0000
  Ti  Ti72      1.0  0.93610  0.73571  0.56366  1.0000
  O   O205      1.0  0.76070  0.81108  0.54531  1.0000
  O   O206      1.0  0.61151  0.99367  0.58202  1.0000
  O   O207      1.0  0.86620  0.82597  0.57964  1.0000
  O   O208      1.0  0.50601  0.97878  0.54768  1.0000
  O   O209      1.0  0.63396  0.73750  0.53694  1.0000
  O   O210      1.0  0.75841  0.92292  0.58016  1.0000
  O   O211      1.0  0.73824  0.73392  0.59039  1.0000
  O   O212      1.0  0.61379  0.88183  0.54716  1.0000
  O   O213      1.0  0.56124  0.74463  0.55338  1.0000
  O   O214      1.0  0.83113  0.91579  0.56372  1.0000
  O   O215      1.0  0.81096  0.72678  0.57395  1.0000
  O   O216      1.0  0.54108  0.88896  0.56360  1.0000
