data_image0
_chemical_formula_structural       Ca4Ti4O12Ca4Ti4O12Ca4Ti4O12
_chemical_formula_sum              "Ca12 Ti12 O36"
_cell_length_a       7.63636
_cell_length_b       5.37205
_cell_length_c       36.2864
_cell_angle_alpha    90
_cell_angle_beta     90
_cell_angle_gamma    90

_space_group_name_H-M_alt    "P 1"
_space_group_IT_number       1

loop_
  _space_group_symop_operation_xyz
  'x, y, z'

loop_
  _atom_site_type_symbol
  _atom_site_label
  _atom_site_symmetry_multiplicity
  _atom_site_fract_x
  _atom_site_fract_y
  _atom_site_fract_z
  _atom_site_occupancy
  Ca  Ca1       1.0  0.75000  0.50907  0.35724  1.0000
  Ca  Ca2       1.0  0.25000  0.49093  0.34448  1.0000
  Ca  Ca3       1.0  0.75000  0.99093  0.28197  1.0000
  Ca  Ca4       1.0  0.25000  0.00907  0.41975  1.0000
  Ti  Ti1       1.0  0.50000  0.00000  0.35086  1.0000
  Ti  Ti2       1.0  0.00000  0.00000  0.35086  1.0000
  Ti  Ti3       1.0  0.50000  0.50000  0.27559  1.0000
  Ti  Ti4       1.0  0.00000  0.50000  0.27559  1.0000
  O   O1        1.0  0.75000  0.07678  0.34805  1.0000
  O   O2        1.0  0.25000  0.92322  0.35367  1.0000
  O   O3        1.0  0.75000  0.42322  0.42332  1.0000
  O   O4        1.0  0.25000  0.57678  0.27840  1.0000
  O   O5        1.0  0.95984  0.79029  0.39446  1.0000
  O   O6        1.0  0.45984  0.20971  0.30726  1.0000
  O   O7        1.0  0.04016  0.20971  0.30726  1.0000
  O   O8        1.0  0.54016  0.79029  0.39446  1.0000
  O   O9        1.0  0.95984  0.70971  0.31919  1.0000
  O   O10       1.0  0.45984  0.29029  0.38253  1.0000
  O   O11       1.0  0.04016  0.29029  0.38253  1.0000
  O   O12       1.0  0.54016  0.70971  0.31919  1.0000
  Ca  Ca5       1.0  0.75000  0.50907  0.50779  1.0000
  Ca  Ca6       1.0  0.25000  0.49093  0.49502  1.0000
  Ca  Ca7       1.0  0.75000  0.99093  0.43251  1.0000
  Ca  Ca8       1.0  0.25000  0.00907  0.57030  1.0000
  Ti  Ti5       1.0  0.50000  0.00000  0.50141  1.0000
  Ti  Ti6       1.0  0.00000  0.00000  0.50141  1.0000
  Ti  Ti7       1.0  0.50000  0.50000  0.42613  1.0000
  Ti  Ti8       1.0  0.00000  0.50000  0.42613  1.0000
  O   O13       1.0  0.75000  0.07678  0.49859  1.0000
  O   O14       1.0  0.25000  0.92322  0.50422  1.0000
  O   O15       1.0  0.75000  0.42322  0.57387  1.0000
  O   O16       1.0  0.25000  0.57678  0.42894  1.0000
  O   O17       1.0  0.95984  0.79029  0.54501  1.0000
  O   O18       1.0  0.45984  0.20971  0.45781  1.0000
  O   O19       1.0  0.04016  0.20971  0.45781  1.0000
  O   O20       1.0  0.54016  0.79029  0.54501  1.0000
  O   O21       1.0  0.95984  0.70971  0.46973  1.0000
  O   O22       1.0  0.45984  0.29029  0.53308  1.0000
  O   O23       1.0  0.04016  0.29029  0.53308  1.0000
  O   O24       1.0  0.54016  0.70971  0.46973  1.0000
  Ca  Ca9       1.0  0.75000  0.50907  0.65834  1.0000
  Ca  Ca10      1.0  0.25000  0.49093  0.64557  1.0000
  Ca  Ca11      1.0  0.75000  0.99093  0.58306  1.0000
  Ca  Ca12      1.0  0.25000  0.00907  0.72084  1.0000
  Ti  Ti9       1.0  0.50000  0.00000  0.65195  1.0000
  Ti  Ti10      1.0  0.00000  0.00000  0.65195  1.0000
  Ti  Ti11      1.0  0.50000  0.50000  0.57668  1.0000
  Ti  Ti12      1.0  0.00000  0.50000  0.57668  1.0000
  O   O25       1.0  0.75000  0.07678  0.64914  1.0000
  O   O26       1.0  0.25000  0.92322  0.65476  1.0000
  O   O27       1.0  0.75000  0.42322  0.72441  1.0000
  O   O28       1.0  0.25000  0.57678  0.57949  1.0000
  O   O29       1.0  0.95984  0.79029  0.69555  1.0000
  O   O30       1.0  0.45984  0.20971  0.60835  1.0000
  O   O31       1.0  0.04016  0.20971  0.60835  1.0000
  O   O32       1.0  0.54016  0.79029  0.69555  1.0000
  O   O33       1.0  0.95984  0.70971  0.62028  1.0000
  O   O34       1.0  0.45984  0.29029  0.68363  1.0000
  O   O35       1.0  0.04016  0.29029  0.68363  1.0000
  O   O36       1.0  0.54016  0.70971  0.62028  1.0000
